PGAz_V.Demo/pgaz_data/pgaz_data_ieee5bus.m
% IEEE 5-BUS TEST SYSTEM  
%   Load Flow Analysis of IEEE 5-Bus System
% 1 - Slack Bus..
% 2 - PV Bus..
% 0 - PQ Bus..

% Bus Data 
%        Bus Bus  Voltage Angle   ---Load---- -------Generator----- Static Mvar
%        No  code Mag.    Degree  MW    Mvar  MW  Mvar Qmin Qmax    +Qc/-Ql
bus.con = [
    1   1    1.06    0.0      0     0     80   30    10   50      0;   % Slack Bus
    2   2    1.045   0.0     20    10     40   20    10   50      0;   % PV Bus
    3   2    1.03    0.0     20    15     30   10    10   40      0;   % PV Bus
    4   0    1.00    0.0     50    30      0    0     0    0      0;   % PQ Bus
    5   0    1.00    0.0     60    40      0    0     0    0      0;   % PQ Bus
];

% Line Data 
%         Bus bus   R      X     1/2 B   = 1 for lines
%         nl  nr  p.u.   p.u.   p.u.     > 1 or < 1 tr. tap at bus nl
line.con = [
    1   2   0.02   0.06   0.030     1;   % Line 1-2
    1   3   0.08   0.24   0.025     1;   % Line 1-3
    2   3   0.06   0.18   0.020     1;   % Line 2-3
    2   4   0.06   0.18   0.020     1;   % Line 2-4
    2   5   0.04   0.12   0.015     1;   % Line 2-5
    3   4   0.01   0.03   0.010     1;   % Line 3-4
    4   5   0.08   0.24   0.025     1;   % Line 4-5
];
